* NGSPICE file created from ring_counter.ext - technology: gf180mcuC

* Black-box entry subcircuit for gf180mcu_fd_sc_mcu7t5v0__fillcap_32 abstract view
.subckt gf180mcu_fd_sc_mcu7t5v0__fillcap_32 VDD VNW VPW VSS
.ends

* Black-box entry subcircuit for gf180mcu_fd_sc_mcu7t5v0__filltie abstract view
.subckt gf180mcu_fd_sc_mcu7t5v0__filltie VDD VSS
.ends

* Black-box entry subcircuit for gf180mcu_fd_sc_mcu7t5v0__fill_1 abstract view
.subckt gf180mcu_fd_sc_mcu7t5v0__fill_1 VDD VNW VPW VSS
.ends

* Black-box entry subcircuit for gf180mcu_fd_sc_mcu7t5v0__fillcap_4 abstract view
.subckt gf180mcu_fd_sc_mcu7t5v0__fillcap_4 VDD VNW VPW VSS
.ends

* Black-box entry subcircuit for gf180mcu_fd_sc_mcu7t5v0__fillcap_64 abstract view
.subckt gf180mcu_fd_sc_mcu7t5v0__fillcap_64 VDD VNW VPW VSS
.ends

* Black-box entry subcircuit for gf180mcu_fd_sc_mcu7t5v0__fill_2 abstract view
.subckt gf180mcu_fd_sc_mcu7t5v0__fill_2 VDD VNW VPW VSS
.ends

* Black-box entry subcircuit for gf180mcu_fd_sc_mcu7t5v0__fillcap_8 abstract view
.subckt gf180mcu_fd_sc_mcu7t5v0__fillcap_8 VDD VNW VPW VSS
.ends

* Black-box entry subcircuit for gf180mcu_fd_sc_mcu7t5v0__fillcap_16 abstract view
.subckt gf180mcu_fd_sc_mcu7t5v0__fillcap_16 VDD VNW VPW VSS
.ends

* Black-box entry subcircuit for gf180mcu_fd_sc_mcu7t5v0__endcap abstract view
.subckt gf180mcu_fd_sc_mcu7t5v0__endcap VDD VSS
.ends

* Black-box entry subcircuit for gf180mcu_fd_sc_mcu7t5v0__dffrnq_1 abstract view
.subckt gf180mcu_fd_sc_mcu7t5v0__dffrnq_1 D RN CLK Q VDD VNW VPW VSS
.ends

* Black-box entry subcircuit for gf180mcu_fd_sc_mcu7t5v0__dffsnq_1 abstract view
.subckt gf180mcu_fd_sc_mcu7t5v0__dffsnq_1 D SETN CLK Q VDD VNW VPW VSS
.ends

* Black-box entry subcircuit for gf180mcu_fd_sc_mcu7t5v0__clkinv_1 abstract view
.subckt gf180mcu_fd_sc_mcu7t5v0__clkinv_1 I ZN VDD VNW VPW VSS
.ends

* Black-box entry subcircuit for gf180mcu_fd_sc_mcu7t5v0__tiel abstract view
.subckt gf180mcu_fd_sc_mcu7t5v0__tiel ZN VDD VNW VPW VSS
.ends

* Black-box entry subcircuit for gf180mcu_fd_sc_mcu7t5v0__buf_1 abstract view
.subckt gf180mcu_fd_sc_mcu7t5v0__buf_1 I Z VDD VNW VPW VSS
.ends

* Black-box entry subcircuit for gf180mcu_fd_sc_mcu7t5v0__clkbuf_16 abstract view
.subckt gf180mcu_fd_sc_mcu7t5v0__clkbuf_16 I Z VDD VNW VPW VSS
.ends

* Black-box entry subcircuit for gf180mcu_fd_sc_mcu7t5v0__dlyb_1 abstract view
.subckt gf180mcu_fd_sc_mcu7t5v0__dlyb_1 I Z VDD VNW VPW VSS
.ends

.subckt ring_counter Clock Count_out[0] Count_out[1] Count_out[2] Count_out[3] Reset
+ io_oeb[0] io_oeb[1] io_oeb[2] io_oeb[3] vccd1 vssd1
XFILLER_54_247 vccd1 vccd1 vssd1 vssd1 gf180mcu_fd_sc_mcu7t5v0__fillcap_32
XTAP_199 vccd1 vssd1 gf180mcu_fd_sc_mcu7t5v0__filltie
XTAP_188 vccd1 vssd1 gf180mcu_fd_sc_mcu7t5v0__filltie
XTAP_177 vccd1 vssd1 gf180mcu_fd_sc_mcu7t5v0__filltie
XFILLER_36_247 vccd1 vccd1 vssd1 vssd1 gf180mcu_fd_sc_mcu7t5v0__fill_1
XFILLER_9_137 vccd1 vccd1 vssd1 vssd1 gf180mcu_fd_sc_mcu7t5v0__fillcap_4
XFILLER_13_144 vccd1 vccd1 vssd1 vssd1 gf180mcu_fd_sc_mcu7t5v0__fillcap_64
XFILLER_50_250 vccd1 vccd1 vssd1 vssd1 gf180mcu_fd_sc_mcu7t5v0__fillcap_64
XFILLER_41_283 vccd1 vccd1 vssd1 vssd1 gf180mcu_fd_sc_mcu7t5v0__fill_1
XFILLER_37_73 vccd1 vccd1 vssd1 vssd1 gf180mcu_fd_sc_mcu7t5v0__fillcap_64
XFILLER_18_247 vccd1 vccd1 vssd1 vssd1 gf180mcu_fd_sc_mcu7t5v0__fill_1
XFILLER_32_250 vccd1 vccd1 vssd1 vssd1 gf180mcu_fd_sc_mcu7t5v0__fillcap_64
XFILLER_23_283 vccd1 vccd1 vssd1 vssd1 gf180mcu_fd_sc_mcu7t5v0__fill_1
XFILLER_43_2 vccd1 vccd1 vssd1 vssd1 gf180mcu_fd_sc_mcu7t5v0__fillcap_64
XFILLER_2_176 vccd1 vccd1 vssd1 vssd1 gf180mcu_fd_sc_mcu7t5v0__fill_1
XFILLER_9_66 vccd1 vccd1 vssd1 vssd1 gf180mcu_fd_sc_mcu7t5v0__fillcap_4
XFILLER_14_250 vccd1 vccd1 vssd1 vssd1 gf180mcu_fd_sc_mcu7t5v0__fillcap_64
XFILLER_20_242 vccd1 vccd1 vssd1 vssd1 gf180mcu_fd_sc_mcu7t5v0__fillcap_4
XFILLER_7_279 vccd1 vccd1 vssd1 vssd1 gf180mcu_fd_sc_mcu7t5v0__fillcap_4
XFILLER_11_286 vccd1 vccd1 vssd1 vssd1 gf180mcu_fd_sc_mcu7t5v0__fillcap_32
XFILLER_46_172 vccd1 vccd1 vssd1 vssd1 gf180mcu_fd_sc_mcu7t5v0__fillcap_4
XFILLER_45_73 vccd1 vccd1 vssd1 vssd1 gf180mcu_fd_sc_mcu7t5v0__fillcap_64
XFILLER_31_326 vccd1 vccd1 vssd1 vssd1 gf180mcu_fd_sc_mcu7t5v0__fillcap_4
XFILLER_28_172 vccd1 vccd1 vssd1 vssd1 gf180mcu_fd_sc_mcu7t5v0__fillcap_4
XTAP_359 vccd1 vssd1 gf180mcu_fd_sc_mcu7t5v0__filltie
XTAP_348 vccd1 vssd1 gf180mcu_fd_sc_mcu7t5v0__filltie
XTAP_337 vccd1 vssd1 gf180mcu_fd_sc_mcu7t5v0__filltie
XTAP_326 vccd1 vssd1 gf180mcu_fd_sc_mcu7t5v0__filltie
XTAP_315 vccd1 vssd1 gf180mcu_fd_sc_mcu7t5v0__filltie
XTAP_304 vccd1 vssd1 gf180mcu_fd_sc_mcu7t5v0__filltie
XFILLER_6_34 vccd1 vccd1 vssd1 vssd1 gf180mcu_fd_sc_mcu7t5v0__fill_1
XFILLER_40_101 vccd1 vccd1 vssd1 vssd1 gf180mcu_fd_sc_mcu7t5v0__fillcap_4
XFILLER_25_164 vccd1 vccd1 vssd1 vssd1 gf180mcu_fd_sc_mcu7t5v0__fill_2
XFILLER_1_208 vccd1 vccd1 vssd1 vssd1 gf180mcu_fd_sc_mcu7t5v0__fillcap_4
XFILLER_13_326 vccd1 vccd1 vssd1 vssd1 gf180mcu_fd_sc_mcu7t5v0__fillcap_4
XFILLER_39_212 vccd1 vccd1 vssd1 vssd1 gf180mcu_fd_sc_mcu7t5v0__fill_1
XFILLER_22_101 vccd1 vccd1 vssd1 vssd1 gf180mcu_fd_sc_mcu7t5v0__fillcap_4
XTAP_189 vccd1 vssd1 gf180mcu_fd_sc_mcu7t5v0__filltie
XTAP_123 vccd1 vssd1 gf180mcu_fd_sc_mcu7t5v0__filltie
XTAP_112 vccd1 vssd1 gf180mcu_fd_sc_mcu7t5v0__filltie
XTAP_134 vccd1 vssd1 gf180mcu_fd_sc_mcu7t5v0__filltie
XTAP_145 vccd1 vssd1 gf180mcu_fd_sc_mcu7t5v0__filltie
XTAP_156 vccd1 vssd1 gf180mcu_fd_sc_mcu7t5v0__filltie
XFILLER_10_318 vccd1 vccd1 vssd1 vssd1 gf180mcu_fd_sc_mcu7t5v0__fill_1
XFILLER_10_329 vccd1 vccd1 vssd1 vssd1 gf180mcu_fd_sc_mcu7t5v0__fill_2
XTAP_167 vccd1 vssd1 gf180mcu_fd_sc_mcu7t5v0__filltie
XTAP_178 vccd1 vssd1 gf180mcu_fd_sc_mcu7t5v0__filltie
XFILLER_45_215 vccd1 vccd1 vssd1 vssd1 gf180mcu_fd_sc_mcu7t5v0__fillcap_64
XFILLER_27_215 vccd1 vccd1 vssd1 vssd1 gf180mcu_fd_sc_mcu7t5v0__fill_1
XFILLER_2_314 vccd1 vccd1 vssd1 vssd1 gf180mcu_fd_sc_mcu7t5v0__fillcap_4
XFILLER_6_108 vccd1 vccd1 vssd1 vssd1 gf180mcu_fd_sc_mcu7t5v0__fillcap_64
XFILLER_53_73 vccd1 vccd1 vssd1 vssd1 gf180mcu_fd_sc_mcu7t5v0__fillcap_64
XFILLER_5_141 vccd1 vccd1 vssd1 vssd1 gf180mcu_fd_sc_mcu7t5v0__fill_1
XFILLER_46_321 vccd1 vccd1 vssd1 vssd1 gf180mcu_fd_sc_mcu7t5v0__fillcap_8
XFILLER_3_2 vccd1 vccd1 vssd1 vssd1 gf180mcu_fd_sc_mcu7t5v0__fillcap_64
XFILLER_0_69 vccd1 vccd1 vssd1 vssd1 gf180mcu_fd_sc_mcu7t5v0__fill_1
XFILLER_37_321 vccd1 vccd1 vssd1 vssd1 gf180mcu_fd_sc_mcu7t5v0__fillcap_8
XFILLER_36_2 vccd1 vccd1 vssd1 vssd1 gf180mcu_fd_sc_mcu7t5v0__fillcap_32
XFILLER_28_321 vccd1 vccd1 vssd1 vssd1 gf180mcu_fd_sc_mcu7t5v0__fillcap_8
XFILLER_52_176 vccd1 vccd1 vssd1 vssd1 gf180mcu_fd_sc_mcu7t5v0__fill_1
XTAP_349 vccd1 vssd1 gf180mcu_fd_sc_mcu7t5v0__filltie
XTAP_338 vccd1 vssd1 gf180mcu_fd_sc_mcu7t5v0__filltie
XTAP_327 vccd1 vssd1 gf180mcu_fd_sc_mcu7t5v0__filltie
XTAP_316 vccd1 vssd1 gf180mcu_fd_sc_mcu7t5v0__filltie
XTAP_305 vccd1 vssd1 gf180mcu_fd_sc_mcu7t5v0__filltie
XFILLER_3_283 vccd1 vccd1 vssd1 vssd1 gf180mcu_fd_sc_mcu7t5v0__fill_1
XFILLER_34_176 vccd1 vccd1 vssd1 vssd1 gf180mcu_fd_sc_mcu7t5v0__fill_1
XFILLER_15_66 vccd1 vccd1 vssd1 vssd1 gf180mcu_fd_sc_mcu7t5v0__fillcap_4
XFILLER_40_179 vccd1 vccd1 vssd1 vssd1 gf180mcu_fd_sc_mcu7t5v0__fillcap_64
XFILLER_16_176 vccd1 vccd1 vssd1 vssd1 gf180mcu_fd_sc_mcu7t5v0__fill_1
XFILLER_54_205 vccd1 vccd1 vssd1 vssd1 gf180mcu_fd_sc_mcu7t5v0__fillcap_4
XFILLER_39_279 vccd1 vccd1 vssd1 vssd1 gf180mcu_fd_sc_mcu7t5v0__fillcap_4
XFILLER_22_179 vccd1 vccd1 vssd1 vssd1 gf180mcu_fd_sc_mcu7t5v0__fillcap_64
XTAP_124 vccd1 vssd1 gf180mcu_fd_sc_mcu7t5v0__filltie
XTAP_113 vccd1 vssd1 gf180mcu_fd_sc_mcu7t5v0__filltie
XTAP_135 vccd1 vssd1 gf180mcu_fd_sc_mcu7t5v0__filltie
XTAP_146 vccd1 vssd1 gf180mcu_fd_sc_mcu7t5v0__filltie
XTAP_157 vccd1 vssd1 gf180mcu_fd_sc_mcu7t5v0__filltie
XTAP_168 vccd1 vssd1 gf180mcu_fd_sc_mcu7t5v0__filltie
XTAP_179 vccd1 vssd1 gf180mcu_fd_sc_mcu7t5v0__filltie
XFILLER_42_31 vccd1 vccd1 vssd1 vssd1 gf180mcu_fd_sc_mcu7t5v0__fillcap_4
XFILLER_51_208 vccd1 vccd1 vssd1 vssd1 gf180mcu_fd_sc_mcu7t5v0__fillcap_4
XFILLER_8_172 vccd1 vccd1 vssd1 vssd1 gf180mcu_fd_sc_mcu7t5v0__fillcap_4
XFILLER_10_105 vccd1 vccd1 vssd1 vssd1 gf180mcu_fd_sc_mcu7t5v0__fill_1
XFILLER_12_34 vccd1 vccd1 vssd1 vssd1 gf180mcu_fd_sc_mcu7t5v0__fill_1
XFILLER_49_330 vccd1 vccd1 vssd1 vssd1 gf180mcu_fd_sc_mcu7t5v0__fill_1
XFILLER_33_208 vccd1 vccd1 vssd1 vssd1 gf180mcu_fd_sc_mcu7t5v0__fillcap_4
XFILLER_15_208 vccd1 vccd1 vssd1 vssd1 gf180mcu_fd_sc_mcu7t5v0__fillcap_4
XFILLER_23_66 vccd1 vccd1 vssd1 vssd1 gf180mcu_fd_sc_mcu7t5v0__fillcap_4
XFILLER_2_101 vccd1 vccd1 vssd1 vssd1 gf180mcu_fd_sc_mcu7t5v0__fillcap_4
XFILLER_0_37 vccd1 vccd1 vssd1 vssd1 gf180mcu_fd_sc_mcu7t5v0__fillcap_32
XFILLER_52_314 vccd1 vccd1 vssd1 vssd1 gf180mcu_fd_sc_mcu7t5v0__fillcap_4
XFILLER_29_2 vccd1 vccd1 vssd1 vssd1 gf180mcu_fd_sc_mcu7t5v0__fillcap_64
XFILLER_7_215 vccd1 vccd1 vssd1 vssd1 gf180mcu_fd_sc_mcu7t5v0__fillcap_64
XFILLER_38_108 vccd1 vccd1 vssd1 vssd1 gf180mcu_fd_sc_mcu7t5v0__fillcap_64
XFILLER_34_314 vccd1 vccd1 vssd1 vssd1 gf180mcu_fd_sc_mcu7t5v0__fillcap_4
XFILLER_37_141 vccd1 vccd1 vssd1 vssd1 gf180mcu_fd_sc_mcu7t5v0__fill_1
XFILLER_20_34 vccd1 vccd1 vssd1 vssd1 gf180mcu_fd_sc_mcu7t5v0__fill_1
XTAP_339 vccd1 vssd1 gf180mcu_fd_sc_mcu7t5v0__filltie
XTAP_328 vccd1 vssd1 gf180mcu_fd_sc_mcu7t5v0__filltie
XTAP_317 vccd1 vssd1 gf180mcu_fd_sc_mcu7t5v0__filltie
XFILLER_43_144 vccd1 vccd1 vssd1 vssd1 gf180mcu_fd_sc_mcu7t5v0__fillcap_64
XTAP_306 vccd1 vssd1 gf180mcu_fd_sc_mcu7t5v0__filltie
XFILLER_16_314 vccd1 vccd1 vssd1 vssd1 gf180mcu_fd_sc_mcu7t5v0__fillcap_4
XFILLER_19_141 vccd1 vccd1 vssd1 vssd1 gf180mcu_fd_sc_mcu7t5v0__fill_1
XFILLER_48_247 vccd1 vccd1 vssd1 vssd1 gf180mcu_fd_sc_mcu7t5v0__fill_1
XFILLER_31_66 vccd1 vccd1 vssd1 vssd1 gf180mcu_fd_sc_mcu7t5v0__fillcap_4
XFILLER_25_166 vccd1 vccd1 vssd1 vssd1 gf180mcu_fd_sc_mcu7t5v0__fill_1
XFILLER_25_144 vccd1 vccd1 vssd1 vssd1 gf180mcu_fd_sc_mcu7t5v0__fillcap_16
XTAP_125 vccd1 vssd1 gf180mcu_fd_sc_mcu7t5v0__filltie
XTAP_114 vccd1 vssd1 gf180mcu_fd_sc_mcu7t5v0__filltie
XTAP_136 vccd1 vssd1 gf180mcu_fd_sc_mcu7t5v0__filltie
XTAP_147 vccd1 vssd1 gf180mcu_fd_sc_mcu7t5v0__filltie
XFILLER_8_321 vccd1 vccd1 vssd1 vssd1 gf180mcu_fd_sc_mcu7t5v0__fillcap_8
XTAP_158 vccd1 vssd1 gf180mcu_fd_sc_mcu7t5v0__filltie
XFILLER_11_2 vccd1 vccd1 vssd1 vssd1 gf180mcu_fd_sc_mcu7t5v0__fillcap_64
XTAP_169 vccd1 vssd1 gf180mcu_fd_sc_mcu7t5v0__filltie
XFILLER_53_283 vccd1 vccd1 vssd1 vssd1 gf180mcu_fd_sc_mcu7t5v0__fill_1
XFILLER_44_250 vccd1 vccd1 vssd1 vssd1 gf180mcu_fd_sc_mcu7t5v0__fillcap_64
XFILLER_35_283 vccd1 vccd1 vssd1 vssd1 gf180mcu_fd_sc_mcu7t5v0__fill_1
XFILLER_41_286 vccd1 vccd1 vssd1 vssd1 gf180mcu_fd_sc_mcu7t5v0__fillcap_32
XFILLER_26_250 vccd1 vccd1 vssd1 vssd1 gf180mcu_fd_sc_mcu7t5v0__fillcap_64
XFILLER_17_283 vccd1 vccd1 vssd1 vssd1 gf180mcu_fd_sc_mcu7t5v0__fill_1
XFILLER_23_286 vccd1 vccd1 vssd1 vssd1 gf180mcu_fd_sc_mcu7t5v0__fillcap_32
XFILLER_2_179 vccd1 vccd1 vssd1 vssd1 gf180mcu_fd_sc_mcu7t5v0__fillcap_64
XFILLER_43_326 vccd1 vccd1 vssd1 vssd1 gf180mcu_fd_sc_mcu7t5v0__fillcap_4
XFILLER_11_212 vccd1 vccd1 vssd1 vssd1 gf180mcu_fd_sc_mcu7t5v0__fill_1
XFILLER_52_101 vccd1 vccd1 vssd1 vssd1 gf180mcu_fd_sc_mcu7t5v0__fillcap_4
XFILLER_41_2 vccd1 vccd1 vssd1 vssd1 gf180mcu_fd_sc_mcu7t5v0__fillcap_64
XFILLER_40_329 vccd1 vccd1 vssd1 vssd1 gf180mcu_fd_sc_mcu7t5v0__fill_2
XFILLER_40_318 vccd1 vccd1 vssd1 vssd1 gf180mcu_fd_sc_mcu7t5v0__fill_1
XFILLER_25_326 vccd1 vccd1 vssd1 vssd1 gf180mcu_fd_sc_mcu7t5v0__fillcap_4
XFILLER_1_70 vccd1 vccd1 vssd1 vssd1 gf180mcu_fd_sc_mcu7t5v0__fill_1
XFILLER_31_318 vccd1 vccd1 vssd1 vssd1 gf180mcu_fd_sc_mcu7t5v0__fillcap_8
XFILLER_29_66 vccd1 vccd1 vssd1 vssd1 gf180mcu_fd_sc_mcu7t5v0__fillcap_4
XFILLER_6_37 vccd1 vccd1 vssd1 vssd1 gf180mcu_fd_sc_mcu7t5v0__fillcap_64
XTAP_329 vccd1 vssd1 gf180mcu_fd_sc_mcu7t5v0__filltie
XTAP_318 vccd1 vssd1 gf180mcu_fd_sc_mcu7t5v0__filltie
XTAP_307 vccd1 vssd1 gf180mcu_fd_sc_mcu7t5v0__filltie
XFILLER_34_101 vccd1 vccd1 vssd1 vssd1 gf180mcu_fd_sc_mcu7t5v0__fillcap_4
XFILLER_22_329 vccd1 vccd1 vssd1 vssd1 gf180mcu_fd_sc_mcu7t5v0__fill_2
XFILLER_22_318 vccd1 vccd1 vssd1 vssd1 gf180mcu_fd_sc_mcu7t5v0__fill_1
XFILLER_0_244 vccd1 vccd1 vssd1 vssd1 gf180mcu_fd_sc_mcu7t5v0__fill_1
XFILLER_13_318 vccd1 vccd1 vssd1 vssd1 gf180mcu_fd_sc_mcu7t5v0__fillcap_8
XFILLER_39_215 vccd1 vccd1 vssd1 vssd1 gf180mcu_fd_sc_mcu7t5v0__fillcap_64
XFILLER_31_137 vccd1 vccd1 vssd1 vssd1 gf180mcu_fd_sc_mcu7t5v0__fillcap_4
XTAP_126 vccd1 vssd1 gf180mcu_fd_sc_mcu7t5v0__filltie
XTAP_115 vccd1 vssd1 gf180mcu_fd_sc_mcu7t5v0__filltie
XTAP_137 vccd1 vssd1 gf180mcu_fd_sc_mcu7t5v0__filltie
XTAP_148 vccd1 vssd1 gf180mcu_fd_sc_mcu7t5v0__filltie
XTAP_159 vccd1 vssd1 gf180mcu_fd_sc_mcu7t5v0__filltie
XFILLER_16_101 vccd1 vccd1 vssd1 vssd1 gf180mcu_fd_sc_mcu7t5v0__fillcap_4
XFILLER_26_34 vccd1 vccd1 vssd1 vssd1 gf180mcu_fd_sc_mcu7t5v0__fill_1
XFILLER_13_137 vccd1 vccd1 vssd1 vssd1 gf180mcu_fd_sc_mcu7t5v0__fillcap_4
XFILLER_50_243 vccd1 vccd1 vssd1 vssd1 gf180mcu_fd_sc_mcu7t5v0__fillcap_4
XFILLER_37_66 vccd1 vccd1 vssd1 vssd1 gf180mcu_fd_sc_mcu7t5v0__fillcap_4
XFILLER_5_144 vccd1 vccd1 vssd1 vssd1 gf180mcu_fd_sc_mcu7t5v0__fillcap_64
XFILLER_32_243 vccd1 vccd1 vssd1 vssd1 gf180mcu_fd_sc_mcu7t5v0__fillcap_4
XFILLER_14_243 vccd1 vccd1 vssd1 vssd1 gf180mcu_fd_sc_mcu7t5v0__fillcap_4
XFILLER_20_246 vccd1 vccd1 vssd1 vssd1 gf180mcu_fd_sc_mcu7t5v0__fill_2
XFILLER_46_176 vccd1 vccd1 vssd1 vssd1 gf180mcu_fd_sc_mcu7t5v0__fill_1
XFILLER_34_34 vccd1 vccd1 vssd1 vssd1 gf180mcu_fd_sc_mcu7t5v0__fill_1
XFILLER_1_2 vccd1 vccd1 vssd1 vssd1 gf180mcu_fd_sc_mcu7t5v0__fillcap_64
XFILLER_11_279 vccd1 vccd1 vssd1 vssd1 gf180mcu_fd_sc_mcu7t5v0__fillcap_4
XFILLER_52_179 vccd1 vccd1 vssd1 vssd1 gf180mcu_fd_sc_mcu7t5v0__fillcap_64
XFILLER_34_2 vccd1 vccd1 vssd1 vssd1 gf180mcu_fd_sc_mcu7t5v0__fillcap_32
XFILLER_6_250 vccd1 vccd1 vssd1 vssd1 gf180mcu_fd_sc_mcu7t5v0__fillcap_64
XFILLER_45_66 vccd1 vccd1 vssd1 vssd1 gf180mcu_fd_sc_mcu7t5v0__fillcap_4
XFILLER_28_176 vccd1 vccd1 vssd1 vssd1 gf180mcu_fd_sc_mcu7t5v0__fill_1
XTAP_319 vccd1 vssd1 gf180mcu_fd_sc_mcu7t5v0__filltie
XTAP_308 vccd1 vssd1 gf180mcu_fd_sc_mcu7t5v0__filltie
XFILLER_34_179 vccd1 vccd1 vssd1 vssd1 gf180mcu_fd_sc_mcu7t5v0__fillcap_64
XFILLER_3_286 vccd1 vccd1 vssd1 vssd1 gf180mcu_fd_sc_mcu7t5v0__fillcap_32
XFILLER_40_105 vccd1 vccd1 vssd1 vssd1 gf180mcu_fd_sc_mcu7t5v0__fill_1
XFILLER_21_330 vccd1 vccd1 vssd1 vssd1 gf180mcu_fd_sc_mcu7t5v0__fill_1
XFILLER_0_212 vccd1 vccd1 vssd1 vssd1 gf180mcu_fd_sc_mcu7t5v0__fillcap_32
XFILLER_16_179 vccd1 vccd1 vssd1 vssd1 gf180mcu_fd_sc_mcu7t5v0__fillcap_64
XTAP_127 vccd1 vssd1 gf180mcu_fd_sc_mcu7t5v0__filltie
XTAP_116 vccd1 vssd1 gf180mcu_fd_sc_mcu7t5v0__filltie
XTAP_138 vccd1 vssd1 gf180mcu_fd_sc_mcu7t5v0__filltie
XTAP_149 vccd1 vssd1 gf180mcu_fd_sc_mcu7t5v0__filltie
XFILLER_45_208 vccd1 vccd1 vssd1 vssd1 gf180mcu_fd_sc_mcu7t5v0__fillcap_4
XFILLER_22_105 vccd1 vccd1 vssd1 vssd1 gf180mcu_fd_sc_mcu7t5v0__fill_1
XFILLER_7_70 vccd1 vccd1 vssd1 vssd1 gf180mcu_fd_sc_mcu7t5v0__fill_1
XFILLER_42_23 vccd1 vccd1 vssd1 vssd1 gf180mcu_fd_sc_mcu7t5v0__fillcap_8
XFILLER_5_326 vccd1 vccd1 vssd1 vssd1 gf180mcu_fd_sc_mcu7t5v0__fillcap_4
XFILLER_27_208 vccd1 vccd1 vssd1 vssd1 gf180mcu_fd_sc_mcu7t5v0__fillcap_4
XFILLER_53_66 vccd1 vccd1 vssd1 vssd1 gf180mcu_fd_sc_mcu7t5v0__fillcap_4
XFILLER_2_329 vccd1 vccd1 vssd1 vssd1 gf180mcu_fd_sc_mcu7t5v0__fill_2
XFILLER_2_318 vccd1 vccd1 vssd1 vssd1 gf180mcu_fd_sc_mcu7t5v0__fill_1
XFILLER_10_108 vccd1 vccd1 vssd1 vssd1 gf180mcu_fd_sc_mcu7t5v0__fillcap_64
XFILLER_12_37 vccd1 vccd1 vssd1 vssd1 gf180mcu_fd_sc_mcu7t5v0__fillcap_64
XFILLER_46_314 vccd1 vccd1 vssd1 vssd1 gf180mcu_fd_sc_mcu7t5v0__fillcap_4
XFILLER_49_141 vccd1 vccd1 vssd1 vssd1 gf180mcu_fd_sc_mcu7t5v0__fill_1
XFILLER_50_34 vccd1 vccd1 vssd1 vssd1 gf180mcu_fd_sc_mcu7t5v0__fill_1
XFILLER_28_314 vccd1 vccd1 vssd1 vssd1 gf180mcu_fd_sc_mcu7t5v0__fillcap_4
XFILLER_37_144 vccd1 vccd1 vssd1 vssd1 gf180mcu_fd_sc_mcu7t5v0__fillcap_64
XFILLER_27_2 vccd1 vccd1 vssd1 vssd1 gf180mcu_fd_sc_mcu7t5v0__fillcap_64
XFILLER_20_37 vccd1 vccd1 vssd1 vssd1 gf180mcu_fd_sc_mcu7t5v0__fillcap_64
XTAP_309 vccd1 vssd1 gf180mcu_fd_sc_mcu7t5v0__filltie
XFILLER_19_144 vccd1 vccd1 vssd1 vssd1 gf180mcu_fd_sc_mcu7t5v0__fillcap_64
XFILLER_0_279 vccd1 vccd1 vssd1 vssd1 gf180mcu_fd_sc_mcu7t5v0__fill_1
XFILLER_54_209 vccd1 vccd1 vssd1 vssd1 gf180mcu_fd_sc_mcu7t5v0__fill_1
XFILLER_47_283 vccd1 vccd1 vssd1 vssd1 gf180mcu_fd_sc_mcu7t5v0__fill_1
XFILLER_30_172 vccd1 vccd1 vssd1 vssd1 gf180mcu_fd_sc_mcu7t5v0__fillcap_4
XTAP_128 vccd1 vssd1 gf180mcu_fd_sc_mcu7t5v0__filltie
XTAP_117 vccd1 vssd1 gf180mcu_fd_sc_mcu7t5v0__filltie
XPHY_0 vccd1 vssd1 gf180mcu_fd_sc_mcu7t5v0__endcap
XTAP_139 vccd1 vssd1 gf180mcu_fd_sc_mcu7t5v0__filltie
XFILLER_53_286 vccd1 vccd1 vssd1 vssd1 gf180mcu_fd_sc_mcu7t5v0__fillcap_32
XFILLER_38_250 vccd1 vccd1 vssd1 vssd1 gf180mcu_fd_sc_mcu7t5v0__fillcap_64
XFILLER_29_283 vccd1 vccd1 vssd1 vssd1 gf180mcu_fd_sc_mcu7t5v0__fill_1
XFILLER_8_176 vccd1 vccd1 vssd1 vssd1 gf180mcu_fd_sc_mcu7t5v0__fill_1
XFILLER_12_172 vccd1 vccd1 vssd1 vssd1 gf180mcu_fd_sc_mcu7t5v0__fillcap_4
XFILLER_35_286 vccd1 vccd1 vssd1 vssd1 gf180mcu_fd_sc_mcu7t5v0__fillcap_32
XFILLER_41_212 vccd1 vccd1 vssd1 vssd1 gf180mcu_fd_sc_mcu7t5v0__fill_1
XFILLER_17_286 vccd1 vccd1 vssd1 vssd1 gf180mcu_fd_sc_mcu7t5v0__fillcap_32
XFILLER_1_330 vccd1 vccd1 vssd1 vssd1 gf180mcu_fd_sc_mcu7t5v0__fill_1
XFILLER_23_212 vccd1 vccd1 vssd1 vssd1 gf180mcu_fd_sc_mcu7t5v0__fill_1
XFILLER_48_34 vccd1 vccd1 vssd1 vssd1 gf180mcu_fd_sc_mcu7t5v0__fill_1
XFILLER_2_105 vccd1 vccd1 vssd1 vssd1 gf180mcu_fd_sc_mcu7t5v0__fill_1
XFILLER_0_19 vccd1 vccd1 vssd1 vssd1 gf180mcu_fd_sc_mcu7t5v0__fillcap_16
XFILLER_13_70 vccd1 vccd1 vssd1 vssd1 gf180mcu_fd_sc_mcu7t5v0__fill_1
XFILLER_52_329 vccd1 vccd1 vssd1 vssd1 gf180mcu_fd_sc_mcu7t5v0__fill_2
XFILLER_52_318 vccd1 vccd1 vssd1 vssd1 gf180mcu_fd_sc_mcu7t5v0__fill_1
XFILLER_43_318 vccd1 vccd1 vssd1 vssd1 gf180mcu_fd_sc_mcu7t5v0__fillcap_8
XFILLER_18_37 vccd1 vccd1 vssd1 vssd1 gf180mcu_fd_sc_mcu7t5v0__fillcap_64
XFILLER_7_208 vccd1 vccd1 vssd1 vssd1 gf180mcu_fd_sc_mcu7t5v0__fillcap_4
XFILLER_11_215 vccd1 vccd1 vssd1 vssd1 gf180mcu_fd_sc_mcu7t5v0__fillcap_64
XFILLER_46_101 vccd1 vccd1 vssd1 vssd1 gf180mcu_fd_sc_mcu7t5v0__fillcap_4
XFILLER_34_329 vccd1 vccd1 vssd1 vssd1 gf180mcu_fd_sc_mcu7t5v0__fill_2
XFILLER_34_318 vccd1 vccd1 vssd1 vssd1 gf180mcu_fd_sc_mcu7t5v0__fill_1
XFILLER_19_326 vccd1 vccd1 vssd1 vssd1 gf180mcu_fd_sc_mcu7t5v0__fillcap_4
XFILLER_28_101 vccd1 vccd1 vssd1 vssd1 gf180mcu_fd_sc_mcu7t5v0__fillcap_4
XFILLER_25_318 vccd1 vccd1 vssd1 vssd1 gf180mcu_fd_sc_mcu7t5v0__fillcap_8
XFILLER_1_73 vccd1 vccd1 vssd1 vssd1 gf180mcu_fd_sc_mcu7t5v0__fillcap_64
XFILLER_43_137 vccd1 vccd1 vssd1 vssd1 gf180mcu_fd_sc_mcu7t5v0__fillcap_4
XFILLER_16_329 vccd1 vccd1 vssd1 vssd1 gf180mcu_fd_sc_mcu7t5v0__fill_2
XFILLER_16_318 vccd1 vccd1 vssd1 vssd1 gf180mcu_fd_sc_mcu7t5v0__fill_1
XFILLER_30_321 vccd1 vccd1 vssd1 vssd1 gf180mcu_fd_sc_mcu7t5v0__fillcap_8
X_09_ _09_/D _09_/RN _09_/CLK _10_/D vccd1 vccd1 vssd1 vssd1 gf180mcu_fd_sc_mcu7t5v0__dffrnq_1
XFILLER_25_137 vccd1 vccd1 vssd1 vssd1 gf180mcu_fd_sc_mcu7t5v0__fillcap_4
XFILLER_0_247 vccd1 vccd1 vssd1 vssd1 gf180mcu_fd_sc_mcu7t5v0__fillcap_32
XFILLER_8_314 vccd1 vccd1 vssd1 vssd1 gf180mcu_fd_sc_mcu7t5v0__fillcap_4
XFILLER_12_321 vccd1 vccd1 vssd1 vssd1 gf180mcu_fd_sc_mcu7t5v0__fillcap_8
XFILLER_21_70 vccd1 vccd1 vssd1 vssd1 gf180mcu_fd_sc_mcu7t5v0__fill_1
XTAP_129 vccd1 vssd1 gf180mcu_fd_sc_mcu7t5v0__filltie
XPHY_1 vccd1 vssd1 gf180mcu_fd_sc_mcu7t5v0__endcap
XTAP_118 vccd1 vssd1 gf180mcu_fd_sc_mcu7t5v0__filltie
XFILLER_26_37 vccd1 vccd1 vssd1 vssd1 gf180mcu_fd_sc_mcu7t5v0__fillcap_64
XFILLER_44_243 vccd1 vccd1 vssd1 vssd1 gf180mcu_fd_sc_mcu7t5v0__fillcap_4
XFILLER_41_279 vccd1 vccd1 vssd1 vssd1 gf180mcu_fd_sc_mcu7t5v0__fillcap_4
XTAP_290 vccd1 vssd1 gf180mcu_fd_sc_mcu7t5v0__filltie
XFILLER_23_279 vccd1 vccd1 vssd1 vssd1 gf180mcu_fd_sc_mcu7t5v0__fillcap_4
XFILLER_37_305 vccd1 vccd1 vssd1 vssd1 gf180mcu_fd_sc_mcu7t5v0__fillcap_16
XFILLER_51_330 vccd1 vccd1 vssd1 vssd1 gf180mcu_fd_sc_mcu7t5v0__fill_1
XFILLER_34_37 vccd1 vccd1 vssd1 vssd1 gf180mcu_fd_sc_mcu7t5v0__fillcap_64
XFILLER_9_283 vccd1 vccd1 vssd1 vssd1 gf180mcu_fd_sc_mcu7t5v0__fill_1
XFILLER_46_179 vccd1 vccd1 vssd1 vssd1 gf180mcu_fd_sc_mcu7t5v0__fillcap_64
XFILLER_52_105 vccd1 vccd1 vssd1 vssd1 gf180mcu_fd_sc_mcu7t5v0__fill_1
XFILLER_33_330 vccd1 vccd1 vssd1 vssd1 gf180mcu_fd_sc_mcu7t5v0__fill_1
XFILLER_28_179 vccd1 vccd1 vssd1 vssd1 gf180mcu_fd_sc_mcu7t5v0__fill_2
XFILLER_3_212 vccd1 vccd1 vssd1 vssd1 gf180mcu_fd_sc_mcu7t5v0__fill_1
XFILLER_34_105 vccd1 vccd1 vssd1 vssd1 gf180mcu_fd_sc_mcu7t5v0__fill_1
XFILLER_32_2 vccd1 vccd1 vssd1 vssd1 gf180mcu_fd_sc_mcu7t5v0__fillcap_32
X_08_ _11_/Q _04_/ZN _09_/CLK _09_/D vccd1 vccd1 vssd1 vssd1 gf180mcu_fd_sc_mcu7t5v0__dffsnq_1
XFILLER_19_70 vccd1 vccd1 vssd1 vssd1 gf180mcu_fd_sc_mcu7t5v0__fill_1
XFILLER_15_330 vccd1 vccd1 vssd1 vssd1 gf180mcu_fd_sc_mcu7t5v0__fill_1
XPHY_100 vccd1 vssd1 gf180mcu_fd_sc_mcu7t5v0__endcap
XFILLER_40_108 vccd1 vccd1 vssd1 vssd1 gf180mcu_fd_sc_mcu7t5v0__fillcap_64
XFILLER_16_105 vccd1 vccd1 vssd1 vssd1 gf180mcu_fd_sc_mcu7t5v0__fill_1
XFILLER_39_208 vccd1 vccd1 vssd1 vssd1 gf180mcu_fd_sc_mcu7t5v0__fillcap_4
XFILLER_22_108 vccd1 vccd1 vssd1 vssd1 gf180mcu_fd_sc_mcu7t5v0__fillcap_64
XTAP_119 vccd1 vssd1 gf180mcu_fd_sc_mcu7t5v0__filltie
XPHY_2 vccd1 vssd1 gf180mcu_fd_sc_mcu7t5v0__endcap
XFILLER_42_37 vccd1 vccd1 vssd1 vssd1 gf180mcu_fd_sc_mcu7t5v0__fillcap_64
XFILLER_21_141 vccd1 vccd1 vssd1 vssd1 gf180mcu_fd_sc_mcu7t5v0__fill_1
XFILLER_7_73 vccd1 vccd1 vssd1 vssd1 gf180mcu_fd_sc_mcu7t5v0__fillcap_64
XFILLER_5_318 vccd1 vccd1 vssd1 vssd1 gf180mcu_fd_sc_mcu7t5v0__fillcap_8
XFILLER_8_101 vccd1 vccd1 vssd1 vssd1 gf180mcu_fd_sc_mcu7t5v0__fillcap_4
XFILLER_50_247 vccd1 vccd1 vssd1 vssd1 gf180mcu_fd_sc_mcu7t5v0__fill_1
XFILLER_5_137 vccd1 vccd1 vssd1 vssd1 gf180mcu_fd_sc_mcu7t5v0__fillcap_4
XFILLER_32_247 vccd1 vccd1 vssd1 vssd1 gf180mcu_fd_sc_mcu7t5v0__fill_1
XFILLER_27_70 vccd1 vccd1 vssd1 vssd1 gf180mcu_fd_sc_mcu7t5v0__fill_1
XTAP_291 vccd1 vssd1 gf180mcu_fd_sc_mcu7t5v0__filltie
XTAP_280 vccd1 vssd1 gf180mcu_fd_sc_mcu7t5v0__filltie
XFILLER_49_144 vccd1 vccd1 vssd1 vssd1 gf180mcu_fd_sc_mcu7t5v0__fillcap_64
XFILLER_14_247 vccd1 vccd1 vssd1 vssd1 gf180mcu_fd_sc_mcu7t5v0__fill_1
XFILLER_50_37 vccd1 vccd1 vssd1 vssd1 gf180mcu_fd_sc_mcu7t5v0__fillcap_64
XFILLER_10_250 vccd1 vccd1 vssd1 vssd1 gf180mcu_fd_sc_mcu7t5v0__fillcap_64
XFILLER_6_243 vccd1 vccd1 vssd1 vssd1 gf180mcu_fd_sc_mcu7t5v0__fillcap_4
XFILLER_42_172 vccd1 vccd1 vssd1 vssd1 gf180mcu_fd_sc_mcu7t5v0__fillcap_4
XFILLER_35_70 vccd1 vccd1 vssd1 vssd1 gf180mcu_fd_sc_mcu7t5v0__fill_1
XFILLER_3_279 vccd1 vccd1 vssd1 vssd1 gf180mcu_fd_sc_mcu7t5v0__fillcap_4
X_07_ _07_/I _11_/RN vccd1 vccd1 vssd1 vssd1 gf180mcu_fd_sc_mcu7t5v0__clkinv_1
XFILLER_25_2 vccd1 vccd1 vssd1 vssd1 gf180mcu_fd_sc_mcu7t5v0__fillcap_64
XPHY_101 vccd1 vssd1 gf180mcu_fd_sc_mcu7t5v0__endcap
XFILLER_47_286 vccd1 vccd1 vssd1 vssd1 gf180mcu_fd_sc_mcu7t5v0__fillcap_32
XFILLER_53_212 vccd1 vccd1 vssd1 vssd1 gf180mcu_fd_sc_mcu7t5v0__fill_1
XPHY_3 vccd1 vssd1 gf180mcu_fd_sc_mcu7t5v0__endcap
XFILLER_29_286 vccd1 vccd1 vssd1 vssd1 gf180mcu_fd_sc_mcu7t5v0__fillcap_32
XFILLER_35_212 vccd1 vccd1 vssd1 vssd1 gf180mcu_fd_sc_mcu7t5v0__fill_1
XFILLER_8_179 vccd1 vccd1 vssd1 vssd1 gf180mcu_fd_sc_mcu7t5v0__fillcap_64
XFILLER_41_215 vccd1 vccd1 vssd1 vssd1 gf180mcu_fd_sc_mcu7t5v0__fillcap_64
XFILLER_49_326 vccd1 vccd1 vssd1 vssd1 gf180mcu_fd_sc_mcu7t5v0__fillcap_4
XFILLER_43_70 vccd1 vccd1 vssd1 vssd1 gf180mcu_fd_sc_mcu7t5v0__fill_1
XFILLER_17_212 vccd1 vccd1 vssd1 vssd1 gf180mcu_fd_sc_mcu7t5v0__fill_1
XFILLER_48_37 vccd1 vccd1 vssd1 vssd1 gf180mcu_fd_sc_mcu7t5v0__fillcap_64
XFILLER_23_215 vccd1 vccd1 vssd1 vssd1 gf180mcu_fd_sc_mcu7t5v0__fillcap_64
XFILLER_2_108 vccd1 vccd1 vssd1 vssd1 gf180mcu_fd_sc_mcu7t5v0__fillcap_64
XFILLER_46_329 vccd1 vccd1 vssd1 vssd1 gf180mcu_fd_sc_mcu7t5v0__fill_2
XFILLER_46_318 vccd1 vccd1 vssd1 vssd1 gf180mcu_fd_sc_mcu7t5v0__fill_1
XTAP_292 vccd1 vssd1 gf180mcu_fd_sc_mcu7t5v0__filltie
XFILLER_37_329 vccd1 vccd1 vssd1 vssd1 gf180mcu_fd_sc_mcu7t5v0__fill_2
XTAP_281 vccd1 vssd1 gf180mcu_fd_sc_mcu7t5v0__filltie
XTAP_270 vccd1 vssd1 gf180mcu_fd_sc_mcu7t5v0__filltie
XFILLER_1_141 vccd1 vccd1 vssd1 vssd1 gf180mcu_fd_sc_mcu7t5v0__fill_1
XFILLER_13_73 vccd1 vccd1 vssd1 vssd1 gf180mcu_fd_sc_mcu7t5v0__fillcap_64
XFILLER_28_329 vccd1 vccd1 vssd1 vssd1 gf180mcu_fd_sc_mcu7t5v0__fill_2
XFILLER_28_318 vccd1 vccd1 vssd1 vssd1 gf180mcu_fd_sc_mcu7t5v0__fill_1
XFILLER_42_321 vccd1 vccd1 vssd1 vssd1 gf180mcu_fd_sc_mcu7t5v0__fillcap_8
XFILLER_19_318 vccd1 vccd1 vssd1 vssd1 gf180mcu_fd_sc_mcu7t5v0__fillcap_8
XFILLER_37_137 vccd1 vccd1 vssd1 vssd1 gf180mcu_fd_sc_mcu7t5v0__fillcap_4
XFILLER_24_321 vccd1 vccd1 vssd1 vssd1 gf180mcu_fd_sc_mcu7t5v0__fillcap_8
XFILLER_51_70 vccd1 vccd1 vssd1 vssd1 gf180mcu_fd_sc_mcu7t5v0__fill_1
XFILLER_19_137 vccd1 vccd1 vssd1 vssd1 gf180mcu_fd_sc_mcu7t5v0__fillcap_4
X_06_ _07_/I _10_/RN vccd1 vccd1 vssd1 vssd1 gf180mcu_fd_sc_mcu7t5v0__clkinv_1
XFILLER_18_2 vccd1 vccd1 vssd1 vssd1 gf180mcu_fd_sc_mcu7t5v0__fill_1
XPHY_102 vccd1 vssd1 gf180mcu_fd_sc_mcu7t5v0__endcap
XFILLER_21_73 vccd1 vccd1 vssd1 vssd1 gf180mcu_fd_sc_mcu7t5v0__fillcap_64
XFILLER_38_243 vccd1 vccd1 vssd1 vssd1 gf180mcu_fd_sc_mcu7t5v0__fillcap_4
XFILLER_30_176 vccd1 vccd1 vssd1 vssd1 gf180mcu_fd_sc_mcu7t5v0__fill_1
XPHY_4 vccd1 vssd1 gf180mcu_fd_sc_mcu7t5v0__endcap
XFILLER_53_279 vccd1 vccd1 vssd1 vssd1 gf180mcu_fd_sc_mcu7t5v0__fillcap_4
XFILLER_35_279 vccd1 vccd1 vssd1 vssd1 gf180mcu_fd_sc_mcu7t5v0__fillcap_4
XFILLER_12_176 vccd1 vccd1 vssd1 vssd1 gf180mcu_fd_sc_mcu7t5v0__fill_1
XFILLER_26_246 vccd1 vccd1 vssd1 vssd1 gf180mcu_fd_sc_mcu7t5v0__fill_2
Xring_counter_6 io_oeb[0] vccd1 vccd1 vssd1 vssd1 gf180mcu_fd_sc_mcu7t5v0__tiel
XFILLER_17_279 vccd1 vccd1 vssd1 vssd1 gf180mcu_fd_sc_mcu7t5v0__fillcap_4
XFILLER_4_172 vccd1 vccd1 vssd1 vssd1 gf180mcu_fd_sc_mcu7t5v0__fillcap_4
XTAP_293 vccd1 vssd1 gf180mcu_fd_sc_mcu7t5v0__filltie
XTAP_282 vccd1 vssd1 gf180mcu_fd_sc_mcu7t5v0__filltie
XTAP_271 vccd1 vssd1 gf180mcu_fd_sc_mcu7t5v0__filltie
XTAP_260 vccd1 vssd1 gf180mcu_fd_sc_mcu7t5v0__filltie
XFILLER_48_2 vccd1 vccd1 vssd1 vssd1 gf180mcu_fd_sc_mcu7t5v0__fillcap_32
XFILLER_45_330 vccd1 vccd1 vssd1 vssd1 gf180mcu_fd_sc_mcu7t5v0__fill_1
XFILLER_9_286 vccd1 vccd1 vssd1 vssd1 gf180mcu_fd_sc_mcu7t5v0__fillcap_32
XFILLER_46_105 vccd1 vccd1 vssd1 vssd1 gf180mcu_fd_sc_mcu7t5v0__fill_1
XFILLER_18_19 vccd1 vccd1 vssd1 vssd1 gf180mcu_fd_sc_mcu7t5v0__fillcap_16
XFILLER_11_208 vccd1 vccd1 vssd1 vssd1 gf180mcu_fd_sc_mcu7t5v0__fillcap_4
XFILLER_52_108 vccd1 vccd1 vssd1 vssd1 gf180mcu_fd_sc_mcu7t5v0__fillcap_64
XFILLER_49_70 vccd1 vccd1 vssd1 vssd1 gf180mcu_fd_sc_mcu7t5v0__fill_1
XFILLER_27_330 vccd1 vccd1 vssd1 vssd1 gf180mcu_fd_sc_mcu7t5v0__fill_1
XFILLER_1_66 vccd1 vccd1 vssd1 vssd1 gf180mcu_fd_sc_mcu7t5v0__fillcap_4
XFILLER_51_141 vccd1 vccd1 vssd1 vssd1 gf180mcu_fd_sc_mcu7t5v0__fill_1
XFILLER_28_105 vccd1 vccd1 vssd1 vssd1 gf180mcu_fd_sc_mcu7t5v0__fill_1
XFILLER_34_108 vccd1 vccd1 vssd1 vssd1 gf180mcu_fd_sc_mcu7t5v0__fillcap_64
XFILLER_30_314 vccd1 vccd1 vssd1 vssd1 gf180mcu_fd_sc_mcu7t5v0__fillcap_4
XFILLER_19_73 vccd1 vccd1 vssd1 vssd1 gf180mcu_fd_sc_mcu7t5v0__fillcap_64
XFILLER_3_215 vccd1 vccd1 vssd1 vssd1 gf180mcu_fd_sc_mcu7t5v0__fillcap_64
XFILLER_33_141 vccd1 vccd1 vssd1 vssd1 gf180mcu_fd_sc_mcu7t5v0__fill_1
X_05_ _07_/I _09_/RN vccd1 vccd1 vssd1 vssd1 gf180mcu_fd_sc_mcu7t5v0__clkinv_1
XPHY_103 vccd1 vssd1 gf180mcu_fd_sc_mcu7t5v0__endcap
XFILLER_24_174 vccd1 vccd1 vssd1 vssd1 gf180mcu_fd_sc_mcu7t5v0__fill_2
XFILLER_16_108 vccd1 vccd1 vssd1 vssd1 gf180mcu_fd_sc_mcu7t5v0__fillcap_64
XFILLER_8_318 vccd1 vccd1 vssd1 vssd1 gf180mcu_fd_sc_mcu7t5v0__fill_1
XFILLER_8_329 vccd1 vccd1 vssd1 vssd1 gf180mcu_fd_sc_mcu7t5v0__fill_2
XFILLER_12_314 vccd1 vccd1 vssd1 vssd1 gf180mcu_fd_sc_mcu7t5v0__fillcap_4
XFILLER_30_2 vccd1 vccd1 vssd1 vssd1 gf180mcu_fd_sc_mcu7t5v0__fillcap_32
XPHY_5 vccd1 vssd1 gf180mcu_fd_sc_mcu7t5v0__endcap
XFILLER_15_141 vccd1 vccd1 vssd1 vssd1 gf180mcu_fd_sc_mcu7t5v0__fill_1
XFILLER_21_144 vccd1 vccd1 vssd1 vssd1 gf180mcu_fd_sc_mcu7t5v0__fillcap_64
XFILLER_44_247 vccd1 vccd1 vssd1 vssd1 gf180mcu_fd_sc_mcu7t5v0__fill_1
XFILLER_4_321 vccd1 vccd1 vssd1 vssd1 gf180mcu_fd_sc_mcu7t5v0__fillcap_8
Xring_counter_7 io_oeb[1] vccd1 vccd1 vssd1 vssd1 gf180mcu_fd_sc_mcu7t5v0__tiel
XFILLER_26_214 vccd1 vccd1 vssd1 vssd1 gf180mcu_fd_sc_mcu7t5v0__fillcap_32
XFILLER_27_73 vccd1 vccd1 vssd1 vssd1 gf180mcu_fd_sc_mcu7t5v0__fillcap_64
XFILLER_40_250 vccd1 vccd1 vssd1 vssd1 gf180mcu_fd_sc_mcu7t5v0__fillcap_64
XFILLER_31_283 vccd1 vccd1 vssd1 vssd1 gf180mcu_fd_sc_mcu7t5v0__fill_1
XTAP_294 vccd1 vssd1 gf180mcu_fd_sc_mcu7t5v0__filltie
XTAP_283 vccd1 vssd1 gf180mcu_fd_sc_mcu7t5v0__filltie
XTAP_272 vccd1 vssd1 gf180mcu_fd_sc_mcu7t5v0__filltie
XTAP_261 vccd1 vssd1 gf180mcu_fd_sc_mcu7t5v0__filltie
XTAP_250 vccd1 vssd1 gf180mcu_fd_sc_mcu7t5v0__filltie
XFILLER_22_250 vccd1 vccd1 vssd1 vssd1 gf180mcu_fd_sc_mcu7t5v0__fillcap_64
XFILLER_8_2 vccd1 vccd1 vssd1 vssd1 gf180mcu_fd_sc_mcu7t5v0__fillcap_32
XFILLER_13_283 vccd1 vccd1 vssd1 vssd1 gf180mcu_fd_sc_mcu7t5v0__fill_1
XFILLER_36_172 vccd1 vccd1 vssd1 vssd1 gf180mcu_fd_sc_mcu7t5v0__fillcap_4
XFILLER_35_73 vccd1 vccd1 vssd1 vssd1 gf180mcu_fd_sc_mcu7t5v0__fillcap_64
X_04_ _07_/I _04_/ZN vccd1 vccd1 vssd1 vssd1 gf180mcu_fd_sc_mcu7t5v0__clkinv_1
XFILLER_21_326 vccd1 vccd1 vssd1 vssd1 gf180mcu_fd_sc_mcu7t5v0__fillcap_4
XFILLER_18_172 vccd1 vccd1 vssd1 vssd1 gf180mcu_fd_sc_mcu7t5v0__fillcap_4
XPHY_104 vccd1 vssd1 gf180mcu_fd_sc_mcu7t5v0__endcap
XFILLER_47_212 vccd1 vccd1 vssd1 vssd1 gf180mcu_fd_sc_mcu7t5v0__fill_1
XFILLER_30_101 vccd1 vccd1 vssd1 vssd1 gf180mcu_fd_sc_mcu7t5v0__fillcap_4
XPHY_6 vccd1 vssd1 gf180mcu_fd_sc_mcu7t5v0__endcap
XFILLER_7_66 vccd1 vccd1 vssd1 vssd1 gf180mcu_fd_sc_mcu7t5v0__fillcap_4
XFILLER_7_330 vccd1 vccd1 vssd1 vssd1 gf180mcu_fd_sc_mcu7t5v0__fill_1